FoamFile
{
    version     2.0;
    format      ascii;
    class       dictionary;
    object      domainDict;
}

solver MRFPUCoupledFoam;

mesh {
    innerRadius 0.025;
    outerRadius 0.050;
    interfaceRadius 0.0375;
    height 0.2;
    resolution 1.0;
    omega 10;
}
